Version 4
SHEET 1 1144 680
WIRE -272 -2880 -272 -2928
WIRE -272 -2880 -624 -2880
WIRE 96 -2880 -272 -2880
WIRE -272 -2640 -272 -2752
WIRE -272 -2640 -544 -2640
WIRE 0 -2640 -272 -2640
WIRE -544 -2496 -544 -2640
WIRE 0 -2496 0 -2640
WIRE -624 -2464 -624 -2880
WIRE -560 -2464 -624 -2464
WIRE 64 -2464 16 -2464
WIRE -320 -2448 -480 -2448
WIRE -64 -2448 -240 -2448
WIRE -560 -2432 -592 -2432
WIRE 96 -2432 96 -2880
WIRE 96 -2432 16 -2432
WIRE -592 -2304 -592 -2432
WIRE -224 -2304 -592 -2304
WIRE 64 -2304 64 -2464
WIRE 64 -2304 -224 -2304
WIRE -400 -2080 -528 -2080
WIRE -384 -2080 -400 -2080
WIRE -112 -2080 -304 -2080
WIRE -224 -2064 -224 -2304
WIRE -400 -2048 -400 -2080
WIRE -464 -2016 -464 -2128
WIRE -528 -2000 -528 -2080
WIRE -496 -2000 -528 -2000
WIRE -400 -1984 -432 -1984
WIRE -272 -1984 -320 -1984
WIRE -496 -1968 -528 -1968
WIRE -112 -1968 -112 -2080
WIRE -112 -1968 -224 -1968
WIRE -528 -1936 -528 -1968
FLAG -272 -2832 0
FLAG -464 -2208 0
FLAG -528 -1856 0
FLAG -224 -1888 0
FLAG -272 -3008 0
FLAG -496 -2496 0
FLAG -48 -2496 0
SYMBOL voltage -272 -2736 R180
WINDOW 0 24 96 Left 2
WINDOW 3 24 16 Left 2
WINDOW 123 0 0 Left 0
WINDOW 39 0 0 Left 0
SYMATTR InstName V1
SYMATTR Value PULSE(0 5 1 1u 1u 1 2)
SYMBOL OpAmps\\UniversalOpAmp2 -464 -1984 R0
SYMATTR InstName U3
SYMBOL voltage -464 -2112 R180
WINDOW 0 24 96 Left 2
WINDOW 3 24 16 Left 2
WINDOW 123 0 0 Left 0
WINDOW 39 0 0 Left 0
SYMATTR InstName V3
SYMATTR Value 9v
SYMBOL cap -416 -2048 R0
SYMATTR InstName C1
SYMATTR Value 100p
SYMBOL res -288 -2096 R90
WINDOW 0 0 56 VBottom 2
WINDOW 3 32 56 VTop 2
SYMATTR InstName R2
SYMATTR Value 10k
SYMBOL res -304 -2000 R90
WINDOW 0 0 56 VBottom 2
WINDOW 3 32 56 VTop 2
SYMATTR InstName R3
SYMATTR Value 100
SYMBOL nmos -272 -2064 R0
SYMATTR InstName M1
SYMATTR Value FDS8962C_N
SYMBOL voltage -528 -1952 R0
WINDOW 123 0 0 Left 0
WINDOW 39 0 0 Left 0
SYMATTR InstName DACREF
SYMATTR Value 5
SYMBOL res -240 -1984 R0
SYMATTR InstName R4
SYMATTR Value 10
SYMBOL res -224 -2464 R90
WINDOW 0 0 56 VBottom 2
WINDOW 3 32 56 VTop 2
SYMATTR InstName R1
SYMATTR Value 5.6
SYMBOL voltage -272 -2912 R180
WINDOW 0 24 96 Left 2
WINDOW 3 24 16 Left 2
WINDOW 123 0 0 Left 0
WINDOW 39 0 0 Left 0
SYMATTR InstName V2
SYMATTR Value 6V
SYMBOL SPDT -464 -2448 R90
SYMATTR InstName U1
SYMBOL SPDT -80 -2448 M90
SYMATTR InstName U2
TEXT -576 -1832 Left 2 !.tran 10
TEXT 448 -2912 Left 2 !.subckt SPDT COM NO NC POS NEG\nS1 COM NO POS NEG MYSW1\nS2 COM NC NEG POS MYSW2\n.model MYSW1 SW(Ron=.01 Roff=1000Meg Vh=.25 Vt=.5)\n.model MYSW2 SW(Ron=.01 Roff=1000Meg Vh=.25 Vt=-.5)\n.ends
